Circuit: * C:\Users\Kevin\Documents\BatteryTesterProject\BatteryTester\resources\PowerReg.asc

WARNING: Less than two connections to node N007.  This node is used by L1.
Direct Newton iteration for .op point succeeded.
.step vpulse=0
.step vpulse=3
.step vpulse=4.2

Date: Mon May 25 21:53:57 2020
Total elapsed time: 6.282 seconds.

tnom = 27
temp = 27
method = modified trap
totiter = 475636
traniter = 475628
tranpoints = 151958
accept = 104305
rejected = 47653
matrix size = 35
fillins = 16
solver = Normal
Matrix Compiler1: 2.59 KB object code size  0.5/0.3/[0.1]
Matrix Compiler2: 2.88 KB object code size  0.2/0.3/[0.2]

